*Heading
** Job name: Job_MC60 Model name: Job_MC60
** Generated by: Abaqus/CAE 2023
*Preprint, echo=NO, model=NO, history=NO, contact=NO
**
** PARTS
**
*Part, name=BOLUS
*Node
      1,           0.,           0.
      2,  0.200000003,           0.
      3,  0.400000006,           0.
      4,  0.600000024,           0.
      5,  0.800000012,           0.
      6,           1.,           0.
      7,   1.20000005,           0.
      8,   1.39999998,           0.
      9,   1.60000002,           0.
     10,   1.79999995,           0.
     11,           2.,           0.
     12,   2.20000005,           0.
     13,    2.4000001,           0.
     14,    2.5999999,           0.
     15,   2.79999995,           0.
     16,           3.,           0.
     17,   3.20000005,           0.
     18,    3.4000001,           0.
     19,    3.5999999,           0.
     20,   3.79999995,           0.
** ... 5131 like lines cut
*Element, type=CAX4R
   1,    1,    2,   53,   52
   2,    2,    3,   54,   53
   3,    3,    4,   55,   54
   4,    4,    5,   56,   55
   5,    5,    6,   57,   56
   6,    6,    7,   58,   57
   7,    7,    8,   59,   58
   8,    8,    9,   60,   59
   9,    9,   10,   61,   60
  10,   10,   11,   62,   61
  11,   11,   12,   63,   62
  12,   12,   13,   64,   63
  13,   13,   14,   65,   64
  14,   14,   15,   66,   65
  15,   15,   16,   67,   66
  16,   16,   17,   68,   67
  17,   17,   18,   69,   68
  18,   18,   19,   70,   69
  19,   19,   20,   71,   70
  20,   20,   21,   72,   71
** ... 4980 like lines cut
*Nset, nset=SET-1, generate
    1,  5151,     1
*Elset, elset=SET-1, generate
    1,  5000,     1
*Nset, nset="All Elements", generate
    1,  5151,     1
*Elset, elset="All Elements", generate
    1,  5000,     1
** Section: Section-1-SET-1
*Solid Section, elset=SET-1, material=BOLUS
,
*End Part
**  
**
** ASSEMBLY
**
*Assembly, name=Assembly
**  
*Instance, name=BOLUS-1, part=BOLUS
*End Instance
**  
*Node
      1,           5.,          20.
*Nset, nset=SET-1, instance=BOLUS-1
 1,
*Nset, nset=SET-2, instance=BOLUS-1, generate
 5101,  5151,     1
*Elset, elset=SET-2, instance=BOLUS-1, generate
 4951,  5000,     1
*Nset, nset=SET-3, instance=BOLUS-1, generate
  1,  51,   1
*Elset, elset=SET-3, instance=BOLUS-1, generate
  1,  50,   1
*Nset, nset=SET-4, instance=BOLUS-1, generate
    1,  5151,     1
*Nset, nset=SET-4
 1,
*End Assembly
*Amplitude, name=AMP-001
             0.,              0.,           3.046,             0.6,           6.188,             1.2,           9.431,             1.8
         12.783,             2.4,          16.252,              3.,          19.845,             3.6,          23.572,             4.2
         27.444,             4.8,          31.471,             5.4,          35.667,              6.,          40.048,             6.6
*Amplitude, name=AMP-01
             0.,              0.,           0.305,             0.6,           0.619,             1.2,           0.943,             1.8
          1.278,             2.4,           1.625,              3.,           1.985,             3.6,           2.357,             4.2
          2.744,             4.8,           3.147,             5.4,           3.567,              6.,           4.005,             6.6
*Amplitude, name=AMP-025
             0.,              0.,      0.12183683,             0.6,     0.247501615,             1.2,     0.377242718,             1.8
    0.511333486,             2.4,     0.650075718,              3.,     0.793803755,             3.6,     0.942889334,             4.2
    1.097747383,             4.8,     1.258842979,             5.4,     1.426699776,              6.,           1.602,             6.6
*Amplitude, name=AMP-05
             0.,              0.,           0.061,             0.6,           0.124,             1.2,           0.189,             1.8
          0.256,             2.4,           0.325,              3.,           0.397,             3.6,           0.471,             4.2
          0.549,             4.8,           0.629,             5.4,           0.713,              6.,           0.801,             6.6
** 
** MATERIALS
** 
*Material, name=BOLUS
*Density
 1.1e-09,
*Elastic
 0.081634, 0.46
*Plastic, rate=0.
 0.00025,0.
*Plastic, rate=0.082
 0.000264299,0.
 0.000997011, 0.008
 0.00123259, 0.01
 0.00231771, 0.02
 0.00406807, 0.04
 0.00492526, 0.06
 0.00530973, 0.08
 0.00550368, 0.1
 0.00560137, 0.12
 0.00564938, 0.14
 0.00566878, 0.16
 0.00567117, 0.18
 0.00565523, 0.2
 0.00563454, 0.22
 0.00560499, 0.24
 0.00557433, 0.26
 0.00553563, 0.28
 0.00549163, 0.3
*Plastic, rate=0.201
 0.000368415,0.
 0.00134407, 0.008
 0.00164133, 0.01
 0.00295956, 0.02
 0.00499808, 0.04
 0.00605386, 0.06
 0.00651464, 0.08
 0.00674507, 0.1
 0.00684526, 0.12
 0.0068905, 0.14
 0.0069028, 0.16
 0.00688952, 0.18
 0.00686413, 0.2
 0.00682624, 0.22
 0.00677671, 0.24
 0.00672943, 0.26
 0.00667037, 0.28
 0.00660919, 0.3
*Plastic, rate=0.4028
 0.00090115,0.
 0.00210499, 0.008
 0.00252168, 0.01
 0.00424159, 0.02
 0.00633824, 0.04
 0.00713009, 0.06
 0.0074998, 0.08
 0.00766323, 0.1
 0.00773534, 0.12
 0.00777385, 0.14
 0.00776569, 0.16
 0.00772857, 0.18
 0.00769696, 0.2
 0.00763898, 0.22
 0.00757221, 0.24
** 
** BOUNDARY CONDITIONS
** 
** Name: Disp-BC-1 Type: Symmetry/Antisymmetry/Encastre
*Boundary
SET-1, ENCASTRE
** Name: Disp-BC-2 Type: Displacement/Rotation
*Boundary
SET-3, 2, 2
** ----------------------------------------------------------------
** 
** STEP: Displacement
** 
*Step, name=Displacement, nlgeom=YES, inc=100000
*Static
0.004, 1.602, 1.5e-10, 0.004
** 
** BOUNDARY CONDITIONS
** 
** Name: Disp-BC-3 Type: Displacement/Rotation
*Boundary, amplitude=AMP-025
SET-2, 2, 2, -1.
** 
** CONTROLS
** 
*Controls, reset
*Controls, parameters=time incrementation
, , , , , , , 15, , , 
** 
** OUTPUT REQUESTS
** 
*Restart, write, frequency=0
** 
** FIELD OUTPUT: F-Output-1
** 
*Output, field
*Element Output, directions=YES
ER, FV, LE, PE, PEEQ, PEMAG, S, SDV
** 
** FIELD OUTPUT: F-Output-2
** 
*Node Output
U, 
** 
** HISTORY OUTPUT: H-Output-1
** 
*Output, history
*Element Output, elset=BOLUS-1."All Elements"
E22, MISES, S22
*End Step
